OPT_V10/Two_days_first_run/powerflow_results_t18.txt
Pandapower Network Debug Info
==================================================

BUS:
       vm_pu  va_degree      p_mw    q_mvar
0   0.993449   0.141607  0.000868  0.000948
1   0.989004   0.254360  0.001386  0.002250
2   0.985086   0.366024  0.001634  0.003373
3   0.990296   0.207330  0.002087  0.003318
4   0.988443   0.292771  0.002997  0.005807
5   0.992377   0.136006  0.003089  0.005619
6   0.990631   0.125535  0.001336  0.000835
7   0.997594   0.033373  0.001604  0.002073
8   0.997716   0.047489  0.002118  0.002846
9   0.999834   0.000928  0.008369  0.010180
10  0.999840   0.000856  0.011918  0.008209
11  0.999857   0.000783  0.012082  0.010019
12  0.999770   0.001370  0.009758  0.005208
13  0.999740   0.001518  0.012656  0.011117
14  0.999751   0.001483  0.013870  0.011639
15  0.999932   0.000532  0.000000  0.000000
16  0.999932   0.000538  0.000000  0.000000
17  0.999775   0.001418  0.000000  0.000000
18  0.999775   0.001428  0.000000  0.000000
19  1.000000   0.000000 -0.038483 -0.043389
20  1.000000   0.000006  0.000000  0.000000
21  1.000000   0.000000 -0.047587 -0.050250
22  1.000000   0.000007  0.000000  0.000000
--------------------------------------------------

LINE:
    p_from_mw  q_from_mvar   p_to_mw  q_to_mvar         pl_mw       ql_mvar  i_from_ka   i_to_ka      i_ka  vm_from_pu  va_from_degree  vm_to_pu  va_to_degree  loading_percent
0    0.038473     0.039389 -0.038470  -0.039387  2.965403e-06  2.312173e-06   0.002119  0.002119  0.002119    1.000000        0.000006  0.999932      0.000532         0.921432
1    0.047577     0.046250 -0.047565  -0.046241  1.184260e-05  9.233867e-06   0.002554  0.002554  0.002554    1.000000        0.000007  0.999775      0.001418         1.110397
2    0.032372     0.028410 -0.032369  -0.028408  2.566462e-06  2.001113e-06   0.001658  0.001658  0.001658    0.999932        0.000532  0.999857      0.000783         0.720827
3    0.009758     0.005208 -0.009758  -0.005208  4.232780e-08  3.300368e-08   0.000426  0.000426  0.000426    0.999775        0.001418  0.999770      0.001370         0.185143
4    0.026528     0.022756 -0.026527  -0.022756  6.682389e-07  5.210369e-07   0.001346  0.001346  0.001346    0.999775        0.001418  0.999751      0.001483         0.585025
5    0.006089     0.009977 -0.006025  -0.009927  6.390069e-05  4.982442e-05   0.016871  0.016871  0.016871    0.999932        0.000538  0.993449      0.141607         7.335185
6    0.004475     0.006493 -0.004426  -0.006455  4.826207e-05  3.763073e-05   0.011384  0.011384  0.011384    0.999775        0.001428  0.992377      0.136006         4.949653
7    0.001608     0.002077 -0.001604  -0.002073  4.664625e-06  3.637085e-06   0.003793  0.003793  0.003793    0.999775        0.001428  0.997594      0.033373         1.648970
8    0.005186     0.008708 -0.005169  -0.008694  1.766995e-05  1.377755e-05   0.014632  0.014632  0.014632    0.999775        0.001428  0.997716      0.047489         6.361858
9    0.008369     0.010180 -0.008369  -0.010180  6.008193e-08  4.684687e-08   0.000507  0.000507  0.000507    0.999840        0.000856  0.999834      0.000928         0.220580
10   0.020287     0.018389 -0.020287  -0.018389  3.667765e-07  2.859817e-07   0.001054  0.001054  0.001054    0.999857        0.000783  0.999840      0.000856         0.458286
11   0.012656     0.011117 -0.012656  -0.011117  1.388541e-07  1.082668e-07   0.000649  0.000649  0.000649    0.999751        0.001483  0.999740      0.001518         0.281978
12  -0.003034    -0.005634  0.003059   0.005653  2.476500e-05  1.930968e-05   0.009338  0.009338  0.009338    0.989004        0.254360  0.993449      0.141607         4.060200
13  -0.002087    -0.003318  0.002098   0.003326  1.046083e-05  8.156482e-06   0.005713  0.005713  0.005713    0.990296        0.207330  0.993449      0.141607         2.483985
14  -0.001634    -0.003373  0.001648   0.003384  1.309834e-05  1.021299e-05   0.005492  0.005492  0.005492    0.985086        0.366024  0.989004      0.254360         2.387992
15   0.003051     0.005848 -0.002997  -0.005807  5.318245e-05  4.146724e-05   0.009543  0.009543  0.009543    0.997716        0.047489  0.988443      0.292771         4.148913
16  -0.001336    -0.000835  0.001338   0.000837  2.200891e-06  1.716071e-06   0.002295  0.002295  0.002295    0.990631        0.125535  0.992377      0.136006         0.997783
--------------------------------------------------

TRAFO:
    p_hv_mw  q_hv_mvar   p_lv_mw  q_lv_mvar    pl_mw   ql_mvar   i_hv_ka   i_lv_ka  vm_hv_pu  va_hv_degree  vm_lv_pu  va_lv_degree  loading_percent
0  0.006099   0.010976 -0.006089  -0.009977  0.00001  0.001000  0.000483  0.016871  0.999932      0.000532  0.999932      0.000538         0.125577
1  0.011279   0.018277 -0.011269  -0.017278  0.00001  0.000999  0.000827  0.029781  0.999775      0.001418  0.999775      0.001428         0.214823
2  0.038483   0.043389 -0.038473  -0.039389  0.00001  0.004000  0.000478  0.002119  1.000000      0.000000  1.000000      0.000006         0.144991
3  0.047587   0.050250 -0.047577  -0.046250  0.00001  0.004000  0.000571  0.002554  1.000000      0.000000  1.000000      0.000007         0.173018
--------------------------------------------------
